Circuit: *AE01.15.00.010_sim01.net

.step rhpf=100 chpf=1e-008
.step rhpf=300 chpf=1e-008
.step rhpf=500 chpf=1e-008
.step rhpf=700 chpf=1e-008
.step rhpf=900 chpf=1e-008
.step rhpf=1000 chpf=1e-008
.step rhpf=100 chpf=2e-008
.step rhpf=300 chpf=2e-008
.step rhpf=500 chpf=2e-008
.step rhpf=700 chpf=2e-008
.step rhpf=900 chpf=2e-008
.step rhpf=1000 chpf=2e-008
.step rhpf=100 chpf=3e-008
.step rhpf=300 chpf=3e-008
.step rhpf=500 chpf=3e-008
.step rhpf=700 chpf=3e-008
.step rhpf=900 chpf=3e-008
.step rhpf=1000 chpf=3e-008
.step rhpf=100 chpf=4e-008
.step rhpf=300 chpf=4e-008
.step rhpf=500 chpf=4e-008
.step rhpf=700 chpf=4e-008
.step rhpf=900 chpf=4e-008
.step rhpf=1000 chpf=4e-008
.step rhpf=100 chpf=5e-008
.step rhpf=300 chpf=5e-008
.step rhpf=500 chpf=5e-008
.step rhpf=700 chpf=5e-008
.step rhpf=900 chpf=5e-008
.step rhpf=1000 chpf=5e-008


Measurement: fc_3db
  step	mag(v(/out))	at
     1	(-3.01056dB,0°)	159155
     2	(-3.01073dB,0°)	53051.6
     3	(-3.01065dB,0°)	31831
     4	(-3.01068dB,0°)	22736.4
     5	(-3.01062dB,0°)	17683.9
     6	(-3.01056dB,0°)	15915.5
     7	(-3.01043dB,0°)	79577.5
     8	(-3.0107dB,0°)	26525.8
     9	(-3.01056dB,0°)	15915.5
    10	(-3.01072dB,0°)	11368.2
    11	(-3.01069dB,0°)	8841.94
    12	(-3.01043dB,0°)	7957.75
    13	(-3.01073dB,0°)	53051.6
    14	(-3.01062dB,0°)	17683.9
    15	(-3.01072dB,0°)	10610.3
    16	(-3.01037dB,0°)	7578.81
    17	(-3.01038dB,0°)	5894.63
    18	(-3.01073dB,0°)	5305.16
    19	(-3.01034dB,0°)	39788.7
    20	(-3.01064dB,0°)	13262.9
    21	(-3.01043dB,0°)	7957.75
    22	(-3.01073dB,0°)	5684.11
    23	(-3.01073dB,0°)	4420.97
    24	(-3.01034dB,0°)	3978.87
    25	(-3.01065dB,0°)	31831
    26	(-3.01072dB,0°)	10610.3
    27	(-3.01071dB,0°)	6366.2
    28	(-3.0106dB,0°)	4547.28
    29	(-3.01051dB,0°)	3536.78
    30	(-3.01065dB,0°)	3183.1


Date: Sat Jan 15 19:41:28 2022
Total elapsed time: 0.246 seconds.

tnom = 27
temp = 27
method = trap
totiter = 0
traniter = 0
tranpoints = 0
accept = 0
rejected = 0
matrix size = 3
fillins = 0
solver = Normal

